! Imported from LoadShapes.txt, with modified directory
! ----------------------------------------------------------------------------------------------------------------
New Loadshape.Shape_1 npts=288 interval=0.0833 mult=(file=loadshape/Load1_5min.csv) useactual=False
New Loadshape.Shape_2 npts=288 interval=0.0833 mult=(file=loadshape/Load2_5min.csv) useactual=False
New Loadshape.Shape_3 npts=288 interval=0.0833 mult=(file=loadshape/Load3_5min.csv) useactual=False
New Loadshape.Shape_4 npts=288 interval=0.0833 mult=(file=loadshape/Load4_5min.csv) useactual=False
New Loadshape.Shape_5 npts=288 interval=0.0833 mult=(file=loadshape/Load5_5min.csv) useactual=False
New Loadshape.Shape_6 npts=288 interval=0.0833 mult=(file=loadshape/Load6_5min.csv) useactual=False
New Loadshape.Shape_7 npts=288 interval=0.0833 mult=(file=loadshape/Load7_5min.csv) useactual=False
New Loadshape.Shape_8 npts=288 interval=0.0833 mult=(file=loadshape/Load8_5min.csv) useactual=False
New Loadshape.Shape_9 npts=288 interval=0.0833 mult=(file=loadshape/Load9_5min.csv) useactual=False
New Loadshape.Shape_10 npts=288 interval=0.0833 mult=(file=loadshape/Load10_5min.csv) useactual=False
New Loadshape.Shape_11 npts=288 interval=0.0833 mult=(file=loadshape/Load11_5min.csv) useactual=False
New Loadshape.Shape_12 npts=288 interval=0.0833 mult=(file=loadshape/Load12_5min.csv) useactual=False
New Loadshape.Shape_13 npts=288 interval=0.0833 mult=(file=loadshape/Load13_5min.csv) useactual=False
New Loadshape.Shape_14 npts=288 interval=0.0833 mult=(file=loadshape/Load14_5min.csv) useactual=False
New Loadshape.Shape_15 npts=288 interval=0.0833 mult=(file=loadshape/Load15_5min.csv) useactual=False
New Loadshape.Shape_16 npts=288 interval=0.0833 mult=(file=loadshape/Load16_5min.csv) useactual=False
New Loadshape.Shape_17 npts=288 interval=0.0833 mult=(file=loadshape/Load17_5min.csv) useactual=False
New Loadshape.Shape_18 npts=288 interval=0.0833 mult=(file=loadshape/Load18_5min.csv) useactual=False
New Loadshape.Shape_19 npts=288 interval=0.0833 mult=(file=loadshape/Load19_5min.csv) useactual=False
New Loadshape.Shape_20 npts=288 interval=0.0833 mult=(file=loadshape/Load20_5min.csv) useactual=False
New Loadshape.Shape_21 npts=288 interval=0.0833 mult=(file=loadshape/Load21_5min.csv) useactual=False
New Loadshape.Shape_22 npts=288 interval=0.0833 mult=(file=loadshape/Load22_5min.csv) useactual=False
New Loadshape.Shape_23 npts=288 interval=0.0833 mult=(file=loadshape/Load23_5min.csv) useactual=False
New Loadshape.Shape_24 npts=288 interval=0.0833 mult=(file=loadshape/Load24_5min.csv) useactual=False
New Loadshape.Shape_25 npts=288 interval=0.0833 mult=(file=loadshape/Load25_5min.csv) useactual=False
New Loadshape.Shape_26 npts=288 interval=0.0833 mult=(file=loadshape/Load26_5min.csv) useactual=False
New Loadshape.Shape_27 npts=288 interval=0.0833 mult=(file=loadshape/Load27_5min.csv) useactual=False
New Loadshape.Shape_28 npts=288 interval=0.0833 mult=(file=loadshape/Load28_5min.csv) useactual=False
New Loadshape.Shape_29 npts=288 interval=0.0833 mult=(file=loadshape/Load29_5min.csv) useactual=False
New Loadshape.Shape_30 npts=288 interval=0.0833 mult=(file=loadshape/Load30_5min.csv) useactual=False
New Loadshape.Shape_31 npts=288 interval=0.0833 mult=(file=loadshape/Load31_5min.csv) useactual=False
New Loadshape.Shape_32 npts=288 interval=0.0833 mult=(file=loadshape/Load32_5min.csv) useactual=False
New Loadshape.Shape_33 npts=288 interval=0.0833 mult=(file=loadshape/Load33_5min.csv) useactual=False
New Loadshape.Shape_34 npts=288 interval=0.0833 mult=(file=loadshape/Load34_5min.csv) useactual=False
New Loadshape.Shape_35 npts=288 interval=0.0833 mult=(file=loadshape/Load35_5min.csv) useactual=False
New Loadshape.Shape_36 npts=288 interval=0.0833 mult=(file=loadshape/Load36_5min.csv) useactual=False
New Loadshape.Shape_37 npts=288 interval=0.0833 mult=(file=loadshape/Load37_5min.csv) useactual=False
New Loadshape.Shape_38 npts=288 interval=0.0833 mult=(file=loadshape/Load38_5min.csv) useactual=False
New Loadshape.Shape_39 npts=288 interval=0.0833 mult=(file=loadshape/Load39_5min.csv) useactual=False
New Loadshape.Shape_40 npts=288 interval=0.0833 mult=(file=loadshape/Load40_5min.csv) useactual=False
New Loadshape.Shape_41 npts=288 interval=0.0833 mult=(file=loadshape/Load41_5min.csv) useactual=False
New Loadshape.Shape_42 npts=288 interval=0.0833 mult=(file=loadshape/Load42_5min.csv) useactual=False
New Loadshape.Shape_43 npts=288 interval=0.0833 mult=(file=loadshape/Load43_5min.csv) useactual=False
New Loadshape.Shape_44 npts=288 interval=0.0833 mult=(file=loadshape/Load44_5min.csv) useactual=False
New Loadshape.Shape_45 npts=288 interval=0.0833 mult=(file=loadshape/Load45_5min.csv) useactual=False
New Loadshape.Shape_46 npts=288 interval=0.0833 mult=(file=loadshape/Load46_5min.csv) useactual=False
New Loadshape.Shape_47 npts=288 interval=0.0833 mult=(file=loadshape/Load47_5min.csv) useactual=False
New Loadshape.Shape_48 npts=288 interval=0.0833 mult=(file=loadshape/Load48_5min.csv) useactual=False
New Loadshape.Shape_49 npts=288 interval=0.0833 mult=(file=loadshape/Load49_5min.csv) useactual=False
New Loadshape.Shape_50 npts=288 interval=0.0833 mult=(file=loadshape/Load50_5min.csv) useactual=False
New Loadshape.Shape_51 npts=288 interval=0.0833 mult=(file=loadshape/Load51_5min.csv) useactual=False
New Loadshape.Shape_52 npts=288 interval=0.0833 mult=(file=loadshape/Load52_5min.csv) useactual=False
New Loadshape.Shape_53 npts=288 interval=0.0833 mult=(file=loadshape/Load53_5min.csv) useactual=False
New Loadshape.Shape_54 npts=288 interval=0.0833 mult=(file=loadshape/Load54_5min.csv) useactual=False
New Loadshape.Shape_55 npts=288 interval=0.0833 mult=(file=loadshape/Load55_5min.csv) useactual=False
! ----------------------------------------------------------------------------------------------------------------
